// Generated for: spectre
// Generated on: Dec 21 14:49:39 2021
// Design library name: KISTA_SOI_STDLIB
// Design cell name: timing
// Design view name: schematic
simulator lang=spectre
global 0 VSS! VDD!

// Library name: KISTA_SOI_STDLIB
// Cell name: INVX1
// View name: analog_extracted
subckt INVX1_analog_extracted Y A
    Rc4 (Y\#1 Y) resistor r=2.5
    Rc3 (Y Y\#3) resistor r=5.23
    Rc5 (VDD! VDD!\#1) resistor r=2.8463
    Rc6 (VSS! VSS!\#1) resistor r=5.3718
    Rd2 (A\#3 A) resistor r=450.9252
    Rs (1 VSS!) resistor r=50
    Rd1 (A\#2 A\#3) resistor r=459.2584
    Rd3 (A\#3 A\#4) resistor r=459.2584
    C7 (VDD! VSS!) capacitor c=4.80699e-15
    C3 (VSS! A) capacitor c=1.99163e-15
    C9 (1 VSS!) capacitor c=18.9849f
    C1 (Y\#1 VSS!) capacitor c=1.86121e-15
    C2 (Y\#3 VSS!) capacitor c=1.06371e-15
    C4 (A\#2 VSS!) capacitor c=1.20051e-15
    C6 (A\#3 VSS!) capacitor c=1.54228e-15
    C8 (VDD!\#1 VSS!) capacitor c=1.95119e-15
    C10 (X1_5 VSS!) capacitor c=1.60447e-15
    C5 (A\#4 VSS!) capacitor c=1.0839e-15
    MX1_M0_unmatched (Y\#1 A\#2 VDD!\#1 VDD!\#1) pch w=4e-06 l=1e-06 as=0 \
        ad=1e-11 ps=0 pd=1.3e-05 sa=2e-06 sb=2e-06
    MX0_M0_unmatched (Y\#3 A\#4 VSS!\#1 VSS!\#1) nch w=2e-06 l=1e-06 as=0 \
        ad=5e-12 ps=0 pd=9e-06 sa=2e-06 sb=2e-06
ends INVX1_analog_extracted
// End of subcircuit definition.

// Library name: KISTA_SOI_STDLIB
// Cell name: NOR2X1
// View name: analog_extracted
subckt NOR2X1_analog_extracted A Y B
    C46 (B\#1 3) capacitor c=702.269a
    C49 (B\#1 net9) capacitor c=247.812a
    C5 (B\#1 VDD!) capacitor c=22.1274a
    C6 (3 VDD!) capacitor c=6.82798e-15
    C8 (net9 VDD!) capacitor c=26.7824a
    C1 (VSS! VDD!) capacitor c=6.28194e-18
    C20 (B\#1 VSS!) capacitor c=3.08722e-18
    C23 (3 VSS!) capacitor c=6.66291e-15
    C4 (Y VDD!) capacitor c=26.333a
    C16 (Y VSS!) capacitor c=1.28683e-18
    C37 (B\#1 Y) capacitor c=307.556a
    C42 (net9 Y) capacitor c=152.931a
    C41 (Y\#3 3) capacitor c=5.38241e-15
    C7 (VDD!\#1 3) capacitor c=322.18a
    C2 (VDD!\#1 A) capacitor c=22.1511a
    C13 (A VSS!) capacitor c=10.2837a
    C31 (3 A) capacitor c=3.38372e-15
    C3 (VDD!\#1 A\#4) capacitor c=303.441a
    C27 (A\#4 Y) capacitor c=3.48881e-18
    C44 (X5_5 Y) capacitor c=636.131a
    C11 (X5_5 VDD!) capacitor c=45.0485a
    C9 (net9\#2 VDD!) capacitor c=30.3639a
    C10 (VDD!\#1 net9\#2) capacitor c=146.624a
    C26 (net9\#2 VSS!) capacitor c=5.29192e-19
    C32 (A\#4 3) capacitor c=643.213a
    C35 (net9\#2 A\#4) capacitor c=248.735a
    C50 (B\#1 X5_5) capacitor c=526.868a
    C52 (X5_5 net9) capacitor c=186.459a
    C22 (B\#2 VSS!) capacitor c=5.01933e-18
    C40 (B\#2 Y\#3) capacitor c=727.441a
    C48 (B\#2 3) capacitor c=2.55904e-15
    C51 (net9\#2 3) capacitor c=103.803a
    C12 (VDD!\#1 X4_5) capacitor c=636.131a
    C36 (A\#4 X4_5) capacitor c=503.459a
    C53 (net9\#2 X4_5) capacitor c=209.118a
    C43 (Y\#4 net9\#2) capacitor c=4.81054e-18
    C15 (A\#5 VSS!) capacitor c=1.39239e-19
    C28 (Y\#4 A) capacitor c=374.885a
    C30 (A\#5 Y\#4) capacitor c=4.70031e-18
    C34 (A\#5 3) capacitor c=40.1876a
    C29 (Y\#4 A\#6) capacitor c=396.962a
    C33 (A\#6 3) capacitor c=1.35929e-15
    C14 (VSS!\#2 A\#6) capacitor c=130.44a
    C17 (VSS!\#2 Y\#4) capacitor c=102.564a
    C25 (VSS!\#2 3) capacitor c=2.10042e-15
    C18 (Y\#3 VSS!\#1) capacitor c=134.1a
    C24 (VSS!\#1 3) capacitor c=249.65a
    C19 (B VSS!) capacitor c=3.93913e-18
    C38 (Y\#3 B) capacitor c=185.018a
    C45 (3 B) capacitor c=2.21732e-15
    C47 (B\#3 3) capacitor c=1.42555e-15
    C21 (VSS!\#1 B\#3) capacitor c=95.5396a
    C39 (Y\#3 B\#3) capacitor c=449.24a
    Rc7 (Y\#3 Y\#5) resistor r=5.0981
    Rs1 (3 VSS!) resistor r=50
    Rc9 (Y Y\#1) resistor r=1.603
    Rc8 (Y\#1 Y\#3) resistor r=7.1435
    Rd6 (Y Y\#3) resistor r=414.3m
    Rc14 (VDD!\#1 VDD!) resistor r=1.4545
    Rc4 (net9 net9\#2) resistor r=2.7059
    Rc2 (B\#1 B\#2) resistor r=744.2584
    Rd1 (A\#4 A\#5) resistor r=657.2891
    Rd2 (A\#5 A) resistor r=5.07
    Rc1 (A\#5 A\#6) resistor r=957.2891
    Rc6 (Y\#3 Y\#4) resistor r=5.3575
    Rd5 (VSS! VSS!\#2) resistor r=5.8178
    Rc5 (VSS!\#1 VSS!\#2) resistor r=71.8528
    Rd4 (VSS! VSS!\#1) resistor r=5.9341
    Rc3 (B\#2 B) resistor r=750.9302
    Rd3 (B\#2 B\#3) resistor r=1044.2584
    MX3_M0_unmatched (Y\#5 B\#3 VSS!\#1 VSS!\#1) nch w=2e-06 l=1e-06 as=0 \
        ad=5e-12 ps=0 pd=9e-06 sa=2e-06 sb=2e-06
    MX2_M0_unmatched (Y\#4 A\#6 VSS!\#2 VSS!\#2) nch w=2e-06 l=1e-06 as=0 \
        ad=5e-12 ps=0 pd=9e-06 sa=2e-06 sb=2e-06
    MX5_M0_unmatched (Y\#1 B\#1 net9 net9) pch w=8e-06 l=1e-06 as=0 \
        ad=2e-11 ps=0 pd=2.1e-05 sa=2e-06 sb=2e-06
    MX4_M0_unmatched (net9\#2 A\#4 VDD!\#1 VDD!\#1) pch w=8e-06 l=1e-06 \
        as=0 ad=2e-11 ps=0 pd=2.1e-05 sa=2e-06 sb=2e-06
ends NOR2X1_analog_extracted
// End of subcircuit definition.

// Library name: KISTA_SOI_STDLIB
// Cell name: BUFX2
// View name: analog_extracted
subckt BUFX2_analog_extracted A Y
    Rc9 (VSS!\#1 VSS!) resistor r=2.8429
    Rc10 (VSS! VSS!\#2) resistor r=5.3217
    Rd3 (A\#3 A) resistor r=525.9402
    Rs1 (3 VSS!) resistor r=50
    Rc7 (VDD!\#1 VDD!) resistor r=1.6554
    Rc8 (VDD! VDD!\#2) resistor r=2.7842
    Rc6 (Y Y\#2) resistor r=1.4275
    Rc5 (Y Y\#1) resistor r=2.7225
    Rd4 (net6\#5 net6\#6) resistor r=444.2584
    Rd1 (A\#2 A\#3) resistor r=1044.2584
    Rc2 (net6\#6 net6\#7) resistor r=1044.2584
    Rd6 (net6\#6 net6) resistor r=370.9252
    Rc4 (net6 net6\#4) resistor r=10.4446
    Rd5 (net6 net6\#3) resistor r=19.9376
    Rc3 (net6\#4 net6\#3) resistor r=10.7147
    Rc1 (A\#3 A\#4) resistor r=1044.2584
    C4 (A VSS!) capacitor c=2.07322e-15
    C17 (3 VSS!) capacitor c=37.7107f
    C2 (VDD!\#1 VSS!) capacitor c=2.01573e-15
    C1 (VSS! VDD!) capacitor c=6.97565e-15
    C3 (VDD!\#2 VSS!) capacitor c=1.58248e-15
    C9 (Y\#2 VSS!) capacitor c=1.23476e-15
    C8 (Y VSS!) capacitor c=1.31357e-15
    C10 (Y\#1 VSS!) capacitor c=1.37661e-15
    C12 (net6\#5 VSS!) capacitor c=1.44955e-15
    C16 (net6\#6 VSS!) capacitor c=2.15027e-15
    C18 (X5_5 VSS!) capacitor c=1.34974e-15
    C19 (X4_5 VSS!) capacitor c=1.12619e-15
    C5 (A\#2 VSS!) capacitor c=1.97575e-15
    C7 (A\#3 VSS!) capacitor c=3.15649e-15
    C14 (net6\#4 VSS!) capacitor c=3.21343e-15
    C13 (net6\#7 VSS!) capacitor c=1.96573e-15
    C11 (net6 VSS!) capacitor c=1.84034e-15
    C15 (net6\#3 VSS!) capacitor c=960.965a
    C6 (A\#4 VSS!) capacitor c=1.83033e-15
    MX5_M0_unmatched (Y\#2 net6\#5 VDD!\#1 VDD!\#1) pch w=8e-06 l=1e-06 \
        as=0 ad=2e-11 ps=0 pd=2.1e-05 sa=2e-06 sb=2e-06
    MX4_M0_unmatched (net6\#4 A\#2 VDD!\#2 VDD!\#2) pch w=4e-06 l=1e-06 \
        as=0 ad=1e-11 ps=0 pd=1.3e-05 sa=2e-06 sb=2e-06
    MX3_M0_unmatched (Y\#1 net6\#7 VSS!\#1 VSS!\#1) nch w=4e-06 l=1e-06 \
        as=0 ad=1e-11 ps=0 pd=1.3e-05 sa=2e-06 sb=2e-06
    MX2_M0_unmatched (net6\#3 A\#4 VSS!\#2 VSS!\#2) nch w=2e-06 l=1e-06 \
        as=0 ad=5e-12 ps=0 pd=9e-06 sa=2e-06 sb=2e-06
ends BUFX2_analog_extracted
// End of subcircuit definition.

// Library name: KISTA_SOI_STDLIB
// Cell name: NAND2X1
// View name: analog_extracted
subckt NAND2X1_analog_extracted A Y B
    Rs1 (3 VSS!) resistor r=50
    Rc10 (VDD!\#1 VDD!\#2) resistor r=24.7053
    Rc16 (VSS!\#1 VSS!) resistor r=2.7536
    Rd1 (A\#4 A\#5) resistor r=1257.2892
    Rd2 (A\#5 A) resistor r=5.0588
    Rc1 (A\#5 A\#6) resistor r=657.2891
    Rd5 (VDD! VDD!\#2) resistor r=3.1463
    Rd4 (VDD! VDD!\#1) resistor r=3.2407
    Rc5 (Y\#3 Y\#5) resistor r=2.6231
    Rc2 (B\#1 B\#2) resistor r=1344.2584
    Rc9 (Y\#3 Y\#4) resistor r=2.8825
    Rc4 (net6 net6\#2) resistor r=5.075
    Rd6 (Y Y\#3) resistor r=351.3m
    Rc11 (Y Y\#1) resistor r=2.7184
    Rc12 (Y\#1 Y\#3) resistor r=35.1317
    Rd3 (B\#2 B\#3) resistor r=744.2584
    Rc3 (B\#2 B) resistor r=750.9427
    C17 (VDD!\#1 Y\#5) capacitor c=157.013a
    C19 (VDD!\#1 B\#1) capacitor c=162.775a
    C21 (VDD!\#1 3) capacitor c=50.589a
    C45 (B\#1 3) capacitor c=1.25679e-15
    C9 (B\#1 VSS!) capacitor c=2.16862e-18
    C12 (3 VSS!) capacitor c=7.52741e-15
    C1 (VDD!\#2 VSS!) capacitor c=11.004a
    C22 (VDD!\#2 3) capacitor c=4.99762e-15
    C2 (A VSS!) capacitor c=10.262a
    C29 (3 A) capacitor c=3.90838e-15
    C3 (A\#4 VSS!) capacitor c=3.38014e-18
    C16 (VDD!\#2 A\#4) capacitor c=197.16a
    C30 (A\#4 3) capacitor c=1.16761e-15
    C4 (VSS!\#1 A) capacitor c=22.1511a
    C13 (VSS!\#1 3) capacitor c=1.29653e-15
    C5 (VSS!\#1 A\#6) capacitor c=180.752a
    C31 (A\#6 3) capacitor c=1.09082e-15
    C6 (A\#5 VSS!) capacitor c=1.15266e-19
    C32 (A\#5 3) capacitor c=39.297a
    C26 (Y\#4 A) capacitor c=59.0578a
    C18 (VDD!\#2 Y\#4) capacitor c=151.553a
    C27 (Y\#4 A\#4) capacitor c=674.149a
    C28 (A\#5 Y\#4) capacitor c=4.57913e-19
    C34 (A\#4 X2_5) capacitor c=509.926a
    C24 (VDD!\#2 X2_5) capacitor c=348.531a
    C43 (Y\#4 X2_5) capacitor c=448.721a
    C20 (3 VDD!) capacitor c=2.2596e-15
    C23 (VDD!\#1 X3_5) capacitor c=184.072a
    C42 (Y\#5 X3_5) capacitor c=448.721a
    C49 (B\#1 X3_5) capacitor c=504.33a
    C37 (Y\#3 B\#1) capacitor c=766.338a
    C11 (B\#2 VSS!) capacitor c=5.01714e-18
    C38 (B\#2 Y\#3) capacitor c=603.712a
    C39 (Y\#3 3) capacitor c=5.66192e-15
    C47 (B\#2 3) capacitor c=3.00815e-15
    C41 (net6\#2 Y\#4) capacitor c=2.93542e-18
    C15 (VSS!\#1 net6\#2) capacitor c=88.9107a
    C33 (net6\#2 A\#6) capacitor c=138.973a
    C25 (A\#6 Y) capacitor c=2.6053e-18
    C7 (Y VSS!) capacitor c=25.0372a
    C51 (net6\#2 3) capacitor c=266.08a
    C14 (net6 VSS!) capacitor c=5.65898e-18
    C40 (net6 Y) capacitor c=83.1149a
    C50 (net6 3) capacitor c=243.228a
    C8 (B VSS!) capacitor c=3.93794e-18
    C10 (B\#3 VSS!) capacitor c=10.0461a
    C35 (B\#3 Y) capacitor c=199.606a
    C36 (Y\#3 B) capacitor c=195.609a
    C48 (B\#3 net6) capacitor c=138.05a
    C44 (3 B) capacitor c=2.20859e-15
    C46 (B\#3 3) capacitor c=1.20834e-15
    MX4_M0_unmatched (net6\#2 A\#6 VSS!\#1 VSS!\#1) nch w=4e-06 l=1e-06 \
        as=0 ad=1e-11 ps=0 pd=1.3e-05 sa=2e-06 sb=2e-06
    MX5_M0_unmatched (Y\#1 B\#3 net6 net6) nch w=4e-06 l=1e-06 as=0 \
        ad=1e-11 ps=0 pd=1.3e-05 sa=2e-06 sb=2e-06
    MX3_M0_unmatched (Y\#5 B\#1 VDD!\#1 VDD!\#1) pch w=4e-06 l=1e-06 as=0 \
        ad=1e-11 ps=0 pd=1.3e-05 sa=2e-06 sb=2e-06
    MX2_M0_unmatched (Y\#4 A\#4 VDD!\#2 VDD!\#2) pch w=4e-06 l=1e-06 as=0 \
        ad=1e-11 ps=0 pd=1.3e-05 sa=2e-06 sb=2e-06
ends NAND2X1_analog_extracted
// End of subcircuit definition.

// Library name: KISTA_SOI_STDLIB
// Cell name: DFFX1
// View name: analog_extracted
subckt DFFX1_analog_extracted Q D QN CK
    Rc49 (VSS!\#3 VSS!\#2312) resistor r=5.1645
    Rc8 (D D\#1) resistor r=5.0025
    Rc5 (n20\#2 n20\#5) resistor r=2.72
    Rd17 (VSS!\#8 VSS!\#2317) resistor r=5.1645
    Rc7 (n20\#2 n20\#3) resistor r=5.1631
    Rd14 (CK\#3 CK) resistor r=450.9377
    Rc58 (VSS! VSS!\#2310) resistor r=5.1886
    Rc32 (n30\#2 n30\#4) resistor r=5.1631
    Rc25 (mout\#3 mout\#8) resistor r=2.7181
    Rc61 (VSS!\#6 VSS!\#2315) resistor r=5.1645
    Rc20 (mout\#3 mout\#7) resistor r=5.2631
    Rc50 (VSS!\#5 VSS!\#2314) resistor r=5.1645
    Rc31 (n30\#8 n30) resistor r=80.464
    Rd2 (n30 n30\#2) resistor r=5.0795
    Rc33 (n30\#2 n30\#5) resistor r=2.7181
    Rc47 (QN QN\#3) resistor r=2.8181
    Rc46 (QN QN\#2) resistor r=5.1631
    Rd8 (VDD!\#1 VDD!\#2) resistor r=2.906
    Rd39 (net055\#5 net055\#6) resistor r=1014.2584
    Rs1 (10 VSS!) resistor r=50
    Rc83 (net055\#6 net055\#7) resistor r=1434.2584
    Rd35 (net055\#6 net055) resistor r=445.9252
    Rc41 (Q Q\#3) resistor r=2.7206
    Rc40 (Q Q\#2) resistor r=5.2606
    Rc68 (qbint\#7 qbint\#2311) resistor r=999.0477
    Rd7 (VDD!\#2 VDD!\#2312) resistor r=4.2474
    Rd9 (VDD!\#2312 VDD!\#4) resistor r=8.5777
    Rc64 (VDD!\#2 VDD!\#4) resistor r=0.621
    Rc53 (VDD!\#2 VDD!\#2311) resistor r=2.7095
    Rd25 (qbint\#5 qbint\#6) resistor r=1014.2584
    Rd24 (qbint\#6 qbint\#7) resistor r=1117.6837
    Rc78 (qbint\#6 qbint\#9) resistor r=1434.2584
    Rc73 (net055 net055\#4) resistor r=10.3451
    Rd34 (net055 net055\#3) resistor r=20.0314
    Rc57 (net055\#4 net055\#3) resistor r=10.8255
    Rd13 (VSS!\#1 VSS!\#2311) resistor r=151.663
    Rd15 (VSS!\#1 VSS!\#3) resistor r=5.7608
    Rc59 (VSS!\#2311 VSS!\#3) resistor r=5.5497
    Rd31 (qbint\#7 qbint\#2310) resistor r=1419.0477
    Rc79 (qbint\#7 qbint\#8) resistor r=2362.7004
    Rd4 (D\#2 D\#1) resistor r=777.2892
    Rd5 (D\#1 D\#3) resistor r=1347.2892
    Rd42 (VDD!\#8 VDD!\#2317) resistor r=2.7345
    Rc9 (net14 net14\#2) resistor r=5.1154
    Rc82 (CKbb\#8 CKbb\#2311) resistor r=463.6361
    Rc10 (net13 net13\#2) resistor r=10.1
    Rc51 (VSS! VSS!\#8) resistor r=409.6m
    Rb1 (CKb\#8 CKb\#2313) resistor r=538.6361
    Rd12 (CK\#2 CK\#3) resistor r=864.2584
    Rc48 (CK\#3 CK\#4) resistor r=1434.2584
    Rc63 (VDD! VDD!\#2310) resistor r=2.7636
    Rc55 (VDD! VDD!\#8) resistor r=408.5m
    Rc4 (VDD! VDD!\#2318) resistor r=5.6939
    Rd1 (VDD!\#8 VDD!\#2318) resistor r=5.6388
    Rb2 (CKb\#2310 CKb\#2314) resistor r=864.2584
    Rc67 (CKb\#4 CKb\#3) resistor r=10.7673
    Rd30 (CKb CKb\#3) resistor r=20.1588
    Rc77 (CKb CKb\#4) resistor r=10.3151
    Rd23 (CKb\#2310 CKb) resistor r=370.9252
    Rc76 (CKb\#9 CKb\#2310) resistor r=1434.2584
    Rd29 (CKb\#8 CKb\#9) resistor r=2928.0679
    Rc66 (CKb\#7 CKb\#8) resistor r=2988.5168
    Rd6 (VSS!\#8 VSS!\#2318) resistor r=10.2888
    Rc52 (VSS! VSS!\#2318) resistor r=10.7825
    Rc74 (CKbb\#2 CKbb\#4) resistor r=10.6105
    Rd40 (CKbb CKbb\#4) resistor r=21.8576
    Rc72 (CKbb CKbb\#2) resistor r=10.0081
    Rd33 (CKbb\#8 CKbb) resistor r=2001.5475
    Rd37 (CKbb\#7 CKbb\#8) resistor r=4188.5166
    Rc54 (VDD!\#4 VDD!\#2313) resistor r=2.7095
    Rc34 (net029 net029\#2) resistor r=5.075
    Rd26 (qbint\#8 qbint\#2313) resistor r=997.5659
    Rd36 (CKbb\#5 CKbb\#6) resistor r=3453.0679
    Rd38 (CKbb\#6 CKbb\#7) resistor r=1188.5167
    Rc81 (CKbb\#6 CKbb\#9) resistor r=3858.8735
    Rc71 (CKbb\#7 CKbb\#2310) resistor r=3991.2551
    Rc26 (n30\#2 n30\#2310) resistor r=3.9915
    Rc29 (n30\#2310 n30\#2313) resistor r=27.1489
    Rc30 (n30\#2 n30\#2313) resistor r=7.3129
    Rc35 (net028 net028\#2) resistor r=10.1
    Rc75 (CKb\#6 CKb\#5) resistor r=4728.0679
    Rb3 (CKb\#6 CKb\#7) resistor r=1188.5167
    Rd28 (CKb\#6 CKb\#2311) resistor r=3633.8735
    Rd22 (CKb\#7 CKb\#2312) resistor r=3766.2549
    Rc15 (net018 net018\#2) resistor r=5.075
    Rc65 (VDD!\#6 VDD!\#2315) resistor r=2.7095
    Rc12 (mout mout\#2) resistor r=1006.0318
    Rd43 (VDD!\#6 VDD!\#8) resistor r=0.621
    Rc2 (VDD!\#2316 VDD!\#8) resistor r=8.5777
    Rd41 (VDD!\#6 VDD!\#2316) resistor r=4.2474
    Rc56 (VDD!\#4 VDD!\#6) resistor r=835.5m
    Rd11 (VDD!\#4 VDD!\#2314) resistor r=3.7973
    Rd10 (VDD!\#2314 VDD!\#6) resistor r=11.5401
    Rc3 (n30\#7 n30\#8) resistor r=1006.0318
    Rc28 (n20\#6 n20\#7) resistor r=1014.2584
    Rc36 (n20\#7 n20\#2) resistor r=750.9252
    Rc37 (n20\#7 n20\#8) resistor r=1434.2584
    Rc38 (n20\#2 n20) resistor r=174.5m
    Rc6 (n20 n20\#2310) resistor r=3.7217
    Rc11 (n20 n20\#2312) resistor r=6.8186
    Rc14 (n20\#2310 n20\#2312) resistor r=32.8723
    Rc16 (net017 net017\#2) resistor r=10.1
    Rc21 (mout\#2 mout\#3) resistor r=47.964
    Rc22 (mout\#2 mout\#4) resistor r=1426.0319
    Rd18 (VSS!\#6 VSS!\#8) resistor r=607.4m
    Rc62 (VSS!\#2316 VSS!\#8) resistor r=15.9906
    Rd21 (VSS!\#6 VSS!\#2316) resistor r=7.918
    Rd16 (VSS!\#5 VSS!\#6) resistor r=596.2m
    Rc60 (VSS!\#3 VSS!\#5) resistor r=607.4m
    Rd19 (VSS!\#3 VSS!\#2313) resistor r=15.9906
    Rd20 (VSS!\#2313 VSS!\#5) resistor r=7.918
    Rd3 (n30\#8 n30\#9) resistor r=1426.0319
    Rc69 (qbint\#8 qbint\#2312) resistor r=1417.5659
    Rd27 (qbint\#8 qbint) resistor r=82.8419
    Rd32 (qbint qbint\#3) resistor r=20.215
    Rc80 (qbint qbint\#4) resistor r=10.4399
    Rc70 (qbint\#4 qbint\#3) resistor r=10.7906
    Rc23 (mout\#3 mout\#9) resistor r=3.611
    Rc17 (mout\#3 mout\#2311) resistor r=6.9897
    Rc24 (mout\#9 mout\#2311) resistor r=32.3608
    C4 (VSS! D) capacitor c=347.57a
    C11 (VSS! CK) capacitor c=1.94469e-15
    C9 (QN\#3 VSS!) capacitor c=1.77117e-15
    C8 (VSS! QN) capacitor c=2.99091e-15
    C10 (QN\#2 VSS!) capacitor c=880.953a
    C16 (VDD!\#1 VSS!) capacitor c=506.526a
    C65 (net055\#5 VSS!) capacitor c=921.882a
    C69 (10 VSS!) capacitor c=64.0779f
    C82 (21 VSS!) capacitor c=1.94456e-15
    C83 (X41_5 VSS!) capacitor c=1.14629e-15
    C84 (X40_5 VSS!) capacitor c=879.514a
    C85 (X39_5 VSS!) capacitor c=842.637a
    C86 (X38_5 VSS!) capacitor c=895.192a
    C87 (X37_5 VSS!) capacitor c=944.088a
    C88 (X36_5 VSS!) capacitor c=1.49854e-15
    C89 (X35_5 VSS!) capacitor c=1.38207e-15
    C90 (X34_5 VSS!) capacitor c=957.737a
    C91 (X33_5 VSS!) capacitor c=954.539a
    C92 (X32_5 VSS!) capacitor c=873.236a
    C93 (X31_5 VSS!) capacitor c=935.113a
    C94 (X30_5 VSS!) capacitor c=1.07878e-15
    C95 (X29_5 VSS!) capacitor c=1.23814e-15
    C96 (VDD!\#2 10) capacitor c=40.8588f
    C142 (net055\#5 10) capacitor c=978.96a
    C68 (net055\#6 VSS!) capacitor c=282.077a
    C146 (net055\#6 10) capacitor c=3.10866e-15
    C66 (net055\#7 VSS!) capacitor c=357.581a
    C143 (net055\#7 10) capacitor c=1.97197e-15
    C141 (10 net055) capacitor c=1.63853e-15
    C1 (VSS! Q) capacitor c=2.98659e-15
    C2 (Q\#3 VSS!) capacitor c=951.892a
    C3 (Q\#2 VSS!) capacitor c=1.14529e-15
    C18 (VDD!\#2312 VSS!) capacitor c=495.603a
    C57 (qbint\#2311 VSS!) capacitor c=962.419a
    C132 (qbint\#2311 10) capacitor c=991.562a
    C64 (qbint\#7 VSS!) capacitor c=1.64582e-15
    C140 (qbint\#7 10) capacitor c=6.03761e-15
    C17 (VDD!\#2311 VSS!) capacitor c=476.565a
    C56 (qbint\#5 VSS!) capacitor c=962.56a
    C67 (net055\#4 VSS!) capacitor c=1.27654e-15
    C131 (qbint\#5 10) capacitor c=991.231a
    C63 (qbint\#6 VSS!) capacitor c=609.929a
    C139 (qbint\#6 10) capacitor c=3.80757e-15
    C144 (net055\#4 10) capacitor c=2.15147e-15
    C59 (qbint\#9 VSS!) capacitor c=376.151a
    C134 (qbint\#9 10) capacitor c=2.01378e-15
    C145 (net055\#3 10) capacitor c=800.821a
    C60 (qbint\#2310 VSS!) capacitor c=376.011a
    C135 (qbint\#2310 10) capacitor c=2.01378e-15
    C7 (D\#1 VSS!) capacitor c=3.55126e-15
    C5 (D\#2 VSS!) capacitor c=1.63917e-15
    C6 (D\#3 VSS!) capacitor c=2.17038e-15
    C23 (VDD!\#2317 VSS!) capacitor c=568.817a
    C77 (net14\#2 VSS!) capacitor c=8.26e-16
    C76 (net14 VSS!) capacitor c=475.361a
    C39 (CKbb\#2311 VSS!) capacitor c=863.708a
    C112 (CKbb\#2311 10) capacitor c=773.645a
    C45 (CKbb\#8 VSS!) capacitor c=1.18828e-15
    C119 (CKbb\#8 10) capacitor c=6.87641e-15
    C122 (n20\#2 10) capacitor c=10.4793f
    C71 (net13\#2 VSS!) capacitor c=420.625a
    C70 (net13 VSS!) capacitor c=384.04a
    C31 (CKb\#2313 VSS!) capacitor c=248.461a
    C102 (CKb\#2313 10) capacitor c=1.42424e-15
    C36 (CKb\#8 VSS!) capacitor c=1.28355e-15
    C108 (CKb\#8 10) capacitor c=6.34425e-15
    C14 (CK\#3 VSS!) capacitor c=3.32019e-15
    C12 (CK\#2 VSS!) capacitor c=1.76017e-15
    C13 (CK\#4 VSS!) capacitor c=2.37844e-15
    C25 (VDD!\#2310 VSS!) capacitor c=727.308a
    C15 (VDD! VSS!) capacitor c=66.8392a
    C33 (CKb\#4 VSS!) capacitor c=1.6233e-15
    C104 (CKb\#4 10) capacitor c=1.839e-15
    C24 (VDD!\#2318 VSS!) capacitor c=585.67a
    C29 (CKb\#2314 VSS!) capacitor c=945.241a
    C42 (CKbb\#2 VSS!) capacitor c=2.38904e-15
    C100 (CKb\#2314 10) capacitor c=812.722a
    C37 (CKb\#2310 VSS!) capacitor c=263.047a
    C109 (CKb\#2310 10) capacitor c=2.85121e-15
    C115 (CKbb\#2 10) capacitor c=1.47464e-15
    C105 (CKb\#3 10) capacitor c=976.506a
    C97 (10 CKb) capacitor c=1.70562e-15
    C32 (CKb\#9 VSS!) capacitor c=1.05787e-15
    C103 (CKb\#9 10) capacitor c=4.67034e-15
    C35 (CKb\#7 VSS!) capacitor c=2.06769e-15
    C107 (CKb\#7 10) capacitor c=7.9493e-15
    C116 (CKbb\#4 10) capacitor c=1.55741e-15
    C110 (10 CKbb) capacitor c=3.6996e-15
    C44 (CKbb\#7 VSS!) capacitor c=2.22744e-15
    C118 (CKbb\#7 10) capacitor c=8.21978e-15
    C19 (VDD!\#2313 VSS!) capacitor c=1.11588e-15
    C58 (qbint\#2313 VSS!) capacitor c=840.916a
    C81 (net029\#2 VSS!) capacitor c=560.569a
    C80 (net029 VSS!) capacitor c=545.499a
    C133 (qbint\#2313 10) capacitor c=930.249a
    C38 (CKbb\#5 VSS!) capacitor c=1.08842e-15
    C111 (CKbb\#5 10) capacitor c=4.20519e-15
    C43 (CKbb\#6 VSS!) capacitor c=3.4661e-15
    C117 (CKbb\#6 10) capacitor c=7.68438e-15
    C40 (CKbb\#9 VSS!) capacitor c=2.51293e-15
    C41 (CKbb\#2310 VSS!) capacitor c=1.70374e-15
    C113 (CKbb\#9 10) capacitor c=4.58869e-15
    C114 (CKbb\#2310 10) capacitor c=4.96923e-15
    C55 (n30\#2 VSS!) capacitor c=7.81656e-15
    C129 (n30\#2 10) capacitor c=12.8619f
    C30 (CKb\#5 VSS!) capacitor c=1.18287e-15
    C74 (net028 VSS!) capacitor c=402.281a
    C75 (net028\#2 VSS!) capacitor c=415.914a
    C101 (CKb\#5 10) capacitor c=5.88243e-15
    C34 (CKb\#6 VSS!) capacitor c=1.50615e-15
    C106 (CKb\#6 10) capacitor c=9.21044e-15
    C27 (CKb\#2311 VSS!) capacitor c=3.00704e-15
    C28 (CKb\#2312 VSS!) capacitor c=1.81357e-15
    C98 (CKb\#2311 10) capacitor c=4.41876e-15
    C99 (CKb\#2312 10) capacitor c=4.52289e-15
    C78 (net018 VSS!) capacitor c=463.421a
    C79 (net018\#2 VSS!) capacitor c=456.596a
    C21 (VDD!\#2315 VSS!) capacitor c=725.755a
    C26 (VDD!\#6 VSS!) capacitor c=3.88751e-15
    C50 (mout VSS!) capacitor c=851.417a
    C124 (10 mout) capacitor c=919.597a
    C22 (VDD!\#2316 VSS!) capacitor c=638.419a
    C20 (VDD!\#2314 VSS!) capacitor c=936.943a
    C53 (n30\#7 VSS!) capacitor c=958.937a
    C62 (qbint\#4 VSS!) capacitor c=2.92544e-15
    C127 (n30\#7 10) capacitor c=893.338a
    C137 (qbint\#4 10) capacitor c=2.38132e-15
    C47 (n20\#6 VSS!) capacitor c=952.957a
    C52 (mout\#3 VSS!) capacitor c=8.12815e-15
    C120 (n20\#6 10) capacitor c=1.00511e-15
    C49 (n20\#7 VSS!) capacitor c=241.586a
    C123 (n20\#7 10) capacitor c=3.44683e-15
    C126 (mout\#3 10) capacitor c=10.8875f
    C46 (n20 VSS!) capacitor c=7.13546e-15
    C48 (n20\#8 VSS!) capacitor c=352.428a
    C121 (n20\#8 10) capacitor c=1.98471e-15
    C72 (net017 VSS!) capacitor c=588.67a
    C73 (net017\#2 VSS!) capacitor c=575.009a
    C51 (mout\#4 VSS!) capacitor c=232.808a
    C125 (mout\#4 10) capacitor c=1.93316e-15
    C61 (qbint\#2312 VSS!) capacitor c=233.255a
    C54 (n30\#9 VSS!) capacitor c=351.983a
    C128 (n30\#9 10) capacitor c=1.86673e-15
    C136 (qbint\#2312 10) capacitor c=1.92327e-15
    C130 (10 qbint) capacitor c=6.82658e-15
    C138 (qbint\#3 10) capacitor c=870.725a
    MX26_M0_unmatched (Q\#2 qbint\#2310 VSS!\#2312 VSS!\#2312) nch w=2e-06 \
        l=1e-06 as=0 ad=5e-12 ps=0 pd=9e-06 sa=2e-06 sb=2e-06
    MX17_M0_unmatched (net13\#2 D\#3 VSS!\#2317 VSS!\#2317) nch w=2e-06 \
        l=1e-06 as=0 ad=5e-12 ps=0 pd=9e-06 sa=2e-06 sb=2e-06
    MX18_M0_unmatched (n20\#3 CKb\#2313 net13 net13) nch w=2e-06 l=1e-06 \
        as=0 ad=5e-12 ps=0 pd=9e-06 sa=2e-06 sb=2e-06
    MX15_M0_unmatched (CKb\#3 CK\#4 VSS!\#2310 VSS!\#2310) nch w=2e-06 \
        l=1e-06 as=0 ad=5e-12 ps=0 pd=9e-06 sa=2e-06 sb=2e-06
    MX22_M0_unmatched (n30\#4 CKbb\#9 mout\#2311 mout\#2311) nch w=2e-06 \
        l=1e-06 as=0 ad=5e-12 ps=0 pd=9e-06 sa=2e-06 sb=2e-06
    MX20_M0_unmatched (net017\#2 mout\#4 VSS!\#2315 VSS!\#2315) nch \
        w=2e-06 l=1e-06 as=0 ad=5e-12 ps=0 pd=9e-06 sa=2e-06 sb=2e-06
    MX19_M0_unmatched (mout\#7 n20\#8 VSS!\#2316 VSS!\#2316) nch w=2e-06 \
        l=1e-06 as=0 ad=5e-12 ps=0 pd=9e-06 sa=2e-06 sb=2e-06
    MX23_M0_unmatched (qbint\#3 n30\#9 VSS!\#2314 VSS!\#2314) nch w=2e-06 \
        l=1e-06 as=0 ad=5e-12 ps=0 pd=9e-06 sa=2e-06 sb=2e-06
    MX28_M0_unmatched (QN\#2 net055\#7 VSS!\#1 VSS!\#1) nch w=2e-06 \
        l=1e-06 as=0 ad=5e-12 ps=0 pd=9e-06 sa=2e-06 sb=2e-06
    MX27_M0_unmatched (net055\#3 qbint\#9 VSS!\#2311 VSS!\#2311) nch \
        w=2e-06 l=1e-06 as=0 ad=5e-12 ps=0 pd=9e-06 sa=2e-06 sb=2e-06
    MX16_M0_unmatched (CKbb\#4 CKb\#9 VSS!\#2318 VSS!\#2318) nch w=2e-06 \
        l=1e-06 as=0 ad=5e-12 ps=0 pd=9e-06 sa=2e-06 sb=2e-06
    MX25_M0_unmatched (n30\#2313 CKb\#5 net028 net028) nch w=2e-06 l=1e-06 \
        as=0 ad=5e-12 ps=0 pd=9e-06 sa=2e-06 sb=2e-06
    MX21_M0_unmatched (n20\#2312 CKbb\#2310 net017 net017) nch w=2e-06 \
        l=1e-06 as=0 ad=5e-12 ps=0 pd=9e-06 sa=2e-06 sb=2e-06
    MX24_M0_unmatched (net028\#2 qbint\#2312 VSS!\#2313 VSS!\#2313) nch \
        w=2e-06 l=1e-06 as=0 ad=5e-12 ps=0 pd=9e-06 sa=2e-06 sb=2e-06
    MX32_M0_unmatched (n20\#5 CKbb\#2311 net14 net14) pch w=4e-06 l=1e-06 \
        as=0 ad=1e-11 ps=0 pd=1.3e-05 sa=2e-06 sb=2e-06
    MX33_M0_unmatched (mout\#8 n20\#6 VDD!\#2316 VDD!\#2316) pch w=4e-06 \
        l=1e-06 as=0 ad=1e-11 ps=0 pd=1.3e-05 sa=2e-06 sb=2e-06
    MM14 (n30\#5 CKb\#2311 mout\#9 mout\#9) pch w=4e-06 l=1e-06 as=0 \
        ad=1e-11 ps=0 pd=1.3e-05 sa=2e-06 sb=2e-06
    MX41_M0_unmatched (QN\#3 net055\#5 VDD!\#1 VDD!\#1) pch w=4e-06 \
        l=1e-06 as=0 ad=1e-11 ps=0 pd=1.3e-05 sa=2e-06 sb=2e-06
    MX39_M0_unmatched (Q\#3 qbint\#2311 VDD!\#2312 VDD!\#2312) pch w=4e-06 \
        l=1e-06 as=0 ad=1e-11 ps=0 pd=1.3e-05 sa=2e-06 sb=2e-06
    MX40_M0_unmatched (net055\#4 qbint\#5 VDD!\#2311 VDD!\#2311) pch \
        w=4e-06 l=1e-06 as=0 ad=1e-11 ps=0 pd=1.3e-05 sa=2e-06 sb=2e-06
    MX31_M0_unmatched (net14\#2 D\#2 VDD!\#2317 VDD!\#2317) pch w=4e-06 \
        l=1e-06 as=0 ad=1e-11 ps=0 pd=1.3e-05 sa=2e-06 sb=2e-06
    MX29_M0_unmatched (CKb\#4 CK\#2 VDD!\#2310 VDD!\#2310) pch w=4e-06 \
        l=1e-06 as=0 ad=1e-11 ps=0 pd=1.3e-05 sa=2e-06 sb=2e-06
    MX30_M0_unmatched (CKbb\#2 CKb\#2314 VDD!\#2318 VDD!\#2318) pch \
        w=4e-06 l=1e-06 as=0 ad=1e-11 ps=0 pd=1.3e-05 sa=2e-06 sb=2e-06
    MX37_M0_unmatched (net029\#2 qbint\#2313 VDD!\#2313 VDD!\#2313) pch \
        w=4e-06 l=1e-06 as=0 ad=1e-11 ps=0 pd=1.3e-05 sa=2e-06 sb=2e-06
    MX38_M0_unmatched (n30\#2310 CKbb\#5 net029 net029) pch w=4e-06 \
        l=1e-06 as=0 ad=1e-11 ps=0 pd=1.3e-05 sa=2e-06 sb=2e-06
    MX35_M0_unmatched (n20\#2310 CKb\#2312 net018 net018) pch w=4e-06 \
        l=1e-06 as=0 ad=1e-11 ps=0 pd=1.3e-05 sa=2e-06 sb=2e-06
    MX34_M0_unmatched (net018\#2 mout VDD!\#2315 VDD!\#2315) pch w=4e-06 \
        l=1e-06 as=0 ad=1e-11 ps=0 pd=1.3e-05 sa=2e-06 sb=2e-06
    MX36_M0_unmatched (qbint\#4 n30\#7 VDD!\#2314 VDD!\#2314) pch w=4e-06 \
        l=1e-06 as=0 ad=1e-11 ps=0 pd=1.3e-05 sa=2e-06 sb=2e-06
ends DFFX1_analog_extracted
// End of subcircuit definition.

// Library name: KISTA_SOI_STDLIB
// Cell name: TIEHI
// View name: analog_extracted
subckt TIEHI_analog_extracted Y
    C1 (VSS! VDD!) capacitor c=3.89589e-15
    C3 (Y VSS!) capacitor c=613.594a
    C5 (1 VSS!) capacitor c=18.0875f
    C2 (VDD!\#1 VSS!) capacitor c=1.55868e-15
    C4 (Y\#1 VSS!) capacitor c=431.394a
    C7 (net7\#3 VSS!) capacitor c=2.91025e-15
    C6 (net7 VSS!) capacitor c=4.05181e-15
    C10 (X1_5 VSS!) capacitor c=1.17984e-15
    C8 (net7\#4 VSS!) capacitor c=895.178a
    C9 (net7\#2 VSS!) capacitor c=412.611a
    Rc4 (VDD! VDD!\#1) resistor r=2.7927
    Rc2 (Y Y\#1) resistor r=2.54
    Rs1 (1 VSS!) resistor r=50
    Rc3 (VSS!\#1 VSS!) resistor r=5.3554
    Rd1 (net7\#3 net7) resistor r=1557.2892
    Rd2 (net7 net7\#4) resistor r=357.2892
    Rc1 (net7 net7\#2) resistor r=10.1279
    MX1_M0_unmatched (Y\#1 net7\#3 VDD!\#1 VDD!\#1) pch w=4e-06 l=1e-06 \
        as=0 ad=1e-11 ps=0 pd=1.3e-05 sa=2e-06 sb=2e-06
    MX0_M0_unmatched (net7\#2 net7\#4 VSS!\#1 VSS!\#1) nch w=2e-06 l=1e-06 \
        as=0 ad=5e-12 ps=0 pd=9e-06 sa=2e-06 sb=2e-06
ends TIEHI_analog_extracted
// End of subcircuit definition.

// Library name: KISTA_SOI_STDLIB
// Cell name: TIELO
// View name: analog_extracted
subckt TIELO_analog_extracted Y
    C1 (VSS! Y) capacitor c=898.28a
    C2 (VDD! VSS!) capacitor c=3.84372e-15
    C4 (1 VSS!) capacitor c=17.8343f
    C3 (VDD!\#1 VSS!) capacitor c=1.13107e-15
    C5 (net25 VSS!) capacitor c=562.423a
    C6 (net25\#3 VSS!) capacitor c=985.513a
    C8 (net25\#2 VSS!) capacitor c=4.44284e-15
    C7 (net25\#4 VSS!) capacitor c=2.57283e-15
    C9 (X1_4 VSS!) capacitor c=1.3251e-15
    Rc5 (Y\#1 Y) resistor r=5
    Rc7 (VSS! VSS!\#1) resistor r=5.3102
    Rc6 (VDD!\#1 VDD!) resistor r=2.7054
    Rs1 (1 VSS!) resistor r=50
    Rc1 (net25 net25\#2) resistor r=7.6529
    Rd1 (net25\#3 net25\#2) resistor r=357.2892
    Rd2 (net25\#2 net25\#4) resistor r=1827.2892
    MX1_M0_unmatched (net25 net25\#3 VDD!\#1 VDD!\#1) pch w=4e-06 l=1e-06 \
        as=0 ad=1e-11 ps=0 pd=1.3e-05 sa=2e-06 sb=2e-06
    MX0_M0_unmatched (Y\#1 net25\#4 VSS!\#1 VSS!\#1) nch w=2e-06 l=1e-06 \
        as=0 ad=5e-12 ps=0 pd=9e-06 sa=2e-06 sb=2e-06
ends TIELO_analog_extracted
// End of subcircuit definition.

// Library name: KISTA_SOI_STDLIB
// Cell name: MX2X1
// View name: analog_extracted
subckt MX2X1 Y S0 B A
    Rs1 (3 VSS!) resistor r=50
    Rc17 (B B\#2) resistor r=2.625
    Rc9 (SB\#8 SB\#3) resistor r=357.2892
    Rd6 (Y Y\#2) resistor r=3.316
    Rc13 (Y\#2 Y\#1) resistor r=20.6749
    Rd4 (Y Y\#1) resistor r=3.432
    Rc15 (Y Y\#4) resistor r=5.1188
    Rc16 (B B\#1) resistor r=5.35
    Rd3 (Y\#4 Y\#6) resistor r=435.1
    Rd5 (S0\#3 S0\#5) resistor r=988.6361
    Rc1 (S0\#3 S0\#2) resistor r=2478.0679
    Rc12 (Y Y\#6) resistor r=5.2212
    Rd2 (S0\#3 S0\#4) resistor r=1177.9113
    Rd8 (A A\#3) resistor r=2.8727
    Rc18 (VDD!\#1 VDD!) resistor r=2.7049
    Rc7 (SB\#3 SB\#4) resistor r=36.6526
    Rc2 (SB\#3 SB\#7) resistor r=6.964
    Rc8 (SB\#4 SB\#7) resistor r=3.1928
    Rd1 (A A\#2) resistor r=5.2386
    Rc6 (A\#3 A\#2) resistor r=461.4998
    Rc11 (S0\#4 S0\#7) resistor r=1027.5659
    Rc14 (S0\#4 S0) resistor r=125.3469
    Rd7 (S0\#4 S0\#6) resistor r=1327.5659
    Rc19 (VSS!\#1 VSS!) resistor r=5.1799
    Rc4 (SB\#7 SB\#6) resistor r=5
    Rc10 (SB\#2 SB\#7) resistor r=230.4m
    Rc5 (SB SB\#2) resistor r=362.2892