// include process libraries
simulator lang=spectre insensitive=yes

// Corners (N vs. P)
// TT - typical - typical 
// FF - fast - fast 
// SS - slow - slow

include "KTH_P20_FET_v1.scs"

