// Generated for: spectre
// Generated on: Oct 31 20:48:44 2022
// Design library name: KISTA_SOI_STDLIB2
// Design cell name: timing
// Design view name: schematic
simulator lang=spectre
global 0 VSS! VDD!

// Library name: KISTA_SOI_STDLIB2
// Cell name: AOI21X1
// View name: analog_extracted
subckt AOI21X1_analog_extracted Y A C B
    C2 (Y\#1 A\#2) capacitor c=329.407a
    C17 (Y\#1 net3) capacitor c=87.8851a
    C22 (A\#2 VSS!) capacitor c=9.08949e-18
    C31 (A\#2 4) capacitor c=1.96915e-15
    C37 (A\#2 net3) capacitor c=172.304a
    C56 (4 VSS!) capacitor c=7.80613e-15
    C80 (net3 4) capacitor c=294.735a
    C8 (Y\#3 VSS!) capacitor c=177.764a
    C10 (Y\#1 VDD!) capacitor c=15.648a
    C25 (A\#2 VDD!) capacitor c=11.0323a
    C63 (4 VDD!) capacitor c=14.9937f
    C12 (Y\#3 B\#3) capacitor c=104.384a
    C54 (B\#3 VSS!) capacitor c=66.9675a
    C71 (B\#3 4) capacitor c=755.358a
    C15 (Y\#2 4) capacitor c=9.14425e-15
    C6 (Y\#2 C) capacitor c=49.205a
    C39 (VSS! C) capacitor c=16.4444a
    C45 (4 C) capacitor c=5.911e-15
    C7 (Y\#2 C\#3) capacitor c=2.34265e-18
    C48 (C\#3 4) capacitor c=329.706a
    C41 (VSS!\#2 C) capacitor c=12.7168a
    C43 (C\#3 VSS!\#2) capacitor c=1.54061e-18
    C58 (VSS!\#2 4) capacitor c=471.118a
    C9 (Y\#5 VSS!\#2) capacitor c=38.314a
    C5 (Y\#5 C\#4) capacitor c=92.1915a
    C42 (VSS!\#2 C\#4) capacitor c=187.466a
    C47 (C\#4 4) capacitor c=1.46591e-15
    C40 (C\#2 VSS!) capacitor c=2.45544e-18
    C46 (C\#2 4) capacitor c=2.06525e-15
    C4 (Y\#6 C\#2) capacitor c=19.9912a
    C11 (Y\#6 B\#4) capacitor c=399.334a
    C53 (B\#4 VSS!) capacitor c=15.8639a
    C70 (B\#4 4) capacitor c=2.5953e-15
    C13 (Y\#2 B) capacitor c=155.265a
    C52 (B VSS!) capacitor c=3.12695e-18
    C69 (4 B) capacitor c=861.277a
    C14 (Y\#2 B\#2) capacitor c=802.285a
    C55 (B\#2 VSS!) capacitor c=9.56655e-18
    C72 (B\#2 4) capacitor c=4.5348e-15
    C19 (Y\#1 X8_5) capacitor c=448.721a
    C38 (A\#2 X8_5) capacitor c=509.926a
    C83 (X8_5 net3) capacitor c=175.347a
    C3 (A\#3 Y) capacitor c=43.4332a
    C1 (A Y) capacitor c=685.256a
    C21 (VSS! A) capacitor c=3.55776e-18
    C24 (A\#3 VSS!) capacitor c=2.25499e-19
    C26 (B A) capacitor c=118.548a
    C27 (B\#2 A) capacitor c=30.166a
    C28 (A\#3 B) capacitor c=4.89247e-18
    C73 (net2\#2 B) capacitor c=46.4454a
    C16 (Y\#3 net2\#2) capacitor c=51.7222a
    C29 (A\#3 B\#2) capacitor c=4.33054e-20
    C30 (4 A) capacitor c=5.59823e-15
    C33 (A\#3 4) capacitor c=316.778a
    C60 (net2\#2 VSS!) capacitor c=1.12473e-18
    C74 (net2\#2 B\#3) capacitor c=83.616a
    C75 (B\#2 net2\#2) capacitor c=16.0906a
    C79 (net2\#2 4) capacitor c=237.325a
    C34 (net2 A) capacitor c=46.786a
    C36 (A\#3 net2) capacitor c=1.09427e-19
    C32 (A\#4 4) capacitor c=1.37305e-15
    C35 (A\#4 net2) capacitor c=83.616a
    C78 (net2 4) capacitor c=236.17a
    C61 (net2\#2 VSS!\#1) capacitor c=62.2561a
    C23 (VSS!\#1 A\#4) capacitor c=186.354a
    C59 (VSS!\#1 net2) capacitor c=103.983a
    C57 (VSS!\#1 4) capacitor c=7.15181e-15
    C18 (net3\#4 Y\#6) capacitor c=184.627a
    C62 (net3\#4 VSS!) capacitor c=14.7665a
    C51 (VDD!\#1 VSS!) capacitor c=11.2154a
    C44 (VDD!\#1 C\#2) capacitor c=182.208a
    C64 (VDD!\#1 4) capacitor c=531.697a
    C65 (net3\#4 VDD!) capacitor c=335.449a
    C76 (net3\#4 B\#4) capacitor c=240.232a
    C81 (net3\#4 4) capacitor c=2.46742e-15
    C82 (net3\#3 4) capacitor c=1.17642e-15
    C49 (net3\#3 C\#2) capacitor c=168.558a
    C66 (net3\#3 VDD!\#1) capacitor c=124.917a
    C67 (X6_5 VDD!) capacitor c=36.7943a
    C50 (C\#2 X6_5) capacitor c=532.553a
    C68 (VDD!\#1 X6_5) capacitor c=405.588a
    C85 (net3\#3 X6_5) capacitor c=149.036a
    C20 (Y\#6 X7_5) capacitor c=226.143a
    C77 (B\#4 X7_5) capacitor c=510.168a
    C84 (net3\#4 X7_5) capacitor c=162.469a
    MX8_M0_unmatched (Y\#1 A\#2 net3 net3) pch w=4e-06 l=1e-06 as=0 \
        ad=1e-11 ps=0 pd=1.3e-05 sa=2e-06 sb=2e-06
    MX6_M0_unmatched (net3\#3 C\#2 VDD!\#1 VDD!\#1) pch w=4e-06 l=1e-06 \
        as=0 ad=1e-11 ps=0 pd=1.3e-05 sa=2e-06 sb=2e-06
    MX7_M0_unmatched (Y\#6 B\#4 net3\#4 net3\#4) pch w=4e-06 l=1e-06 as=0 \
        ad=1e-11 ps=0 pd=1.3e-05 sa=2e-06 sb=2e-06
    Rs1 (4 VSS!) resistor r=50
    Rc1 (Y\#2 Y\#3) resistor r=5.5903
    Rc12 (C\#3 C) resistor r=85.564
    Rc15 (VSS! VSS!\#2) resistor r=5.0972
    Rd4 (Y\#2 Y\#5) resistor r=5.7021
    Rc2 (Y\#3 Y\#5) resistor r=95.6457
    Rd8 (C\#3 C\#4) resistor r=1036.0317
    Rc9 (C\#2 C\#3) resistor r=1936.0317
    Rd5 (Y\#2 Y\#6) resistor r=2.7731
    Rc6 (Y Y\#2) resistor r=179.5m
    Rd1 (B\#2 B\#4) resistor r=2536.0317
    Rd3 (B\#2 B) resistor r=85.564
    Rd6 (Y\#1 Y) resistor r=2.8529
    Rd7 (A\#2 A\#3) resistor r=1936.0317
    Rc13 (B\#2 B\#3) resistor r=436.0318
    Rd9 (A\#3 A) resistor r=85.564
    Rc8 (A\#3 A\#4) resistor r=1036.0317
    Rc7 (net2 net2\#2) resistor r=10.1
    Rc14 (VSS!\#1 VSS!) resistor r=5.2715
    Rd2 (net3 net3\#3) resistor r=8.4068
    Rc11 (net3 net3\#4) resistor r=7.8171
    Rc16 (VDD!\#1 VDD!) resistor r=2.7104
    Rc10 (net3\#4 net3\#3) resistor r=8.1065
    MX3_M0_unmatched (Y\#5 C\#4 VSS!\#2 VSS!\#2) nch w=2e-06 l=1e-06 as=0 \
        ad=5e-12 ps=0 pd=9e-06 sa=2e-06 sb=2e-06
    MX4_M0_unmatched (Y\#3 B\#3 net2\#2 net2\#2) nch w=2e-06 l=1e-06 as=0 \
        ad=5e-12 ps=0 pd=9e-06 sa=2e-06 sb=2e-06
    MX5_M0_unmatched (net2 A\#4 VSS!\#1 VSS!\#1) nch w=2e-06 l=1e-06 as=0 \
        ad=5e-12 ps=0 pd=9e-06 sa=2e-06 sb=2e-06
ends AOI21X1_analog_extracted
// End of subcircuit definition.

// Library name: KISTA_SOI_STDLIB2
// Cell name: BUFX2
// View name: analog_extracted
subckt BUFX2_analog_extracted A Y
    C20 (VDD!\#1 Y\#2) capacitor c=208.188a
    C22 (VDD!\#1 YN\#5) capacitor c=332.801a
    C27 (VDD!\#1 3) capacitor c=5.75028e-15
    C46 (Y\#2 YN\#5) capacitor c=365.175a
    C53 (Y\#2 3) capacitor c=865.928a
    C57 (YN\#5 3) capacitor c=1.25259e-15
    C6 (Y\#2 VSS!) capacitor c=5.40698e-18
    C9 (YN\#5 VSS!) capacitor c=1.99516e-18
    C16 (3 VSS!) capacitor c=4.4918e-15
    C1 (VDD!\#2 VSS!) capacitor c=10.4024a
    C28 (VDD!\#2 3) capacitor c=110.87a
    C2 (A VSS!) capacitor c=16.1666a
    C39 (3 A) capacitor c=6.27042e-15
    C3 (A\#2 VSS!) capacitor c=1.88065e-18
    C19 (VDD!\#2 A\#2) capacitor c=246.937a
    C40 (A\#2 3) capacitor c=1.26397e-15
    C5 (A\#3 VSS!) capacitor c=7.83915e-19
    C42 (A\#3 3) capacitor c=351.629a
    C8 (YN VSS!) capacitor c=2.99034e-18
    C21 (VDD!\#1 YN) capacitor c=11.2002a
    C45 (Y\#2 YN) capacitor c=16.9501a
    C56 (3 YN) capacitor c=4.89814e-15
    C10 (VSS!\#1 YN) capacitor c=9.52504e-18
    C17 (VSS!\#1 3) capacitor c=5.96683e-15
    C7 (VSS!\#1 Y\#1) capacitor c=145.046a
    C47 (Y\#1 YN) capacitor c=16.9161a
    C54 (Y\#1 3) capacitor c=1.27298e-15
    C11 (VSS!\#1 YN\#7) capacitor c=240.393a
    C48 (Y\#1 YN\#7) capacitor c=257.224a
    C58 (YN\#7 3) capacitor c=1.75591e-15
    C14 (YN\#3 VSS!\#1) capacitor c=70.6303a
    C13 (YN\#3 VSS!) capacitor c=50.3617a
    C51 (YN\#3 Y\#1) capacitor c=9.12421e-18
    C60 (YN\#3 3) capacitor c=1.12046e-15
    C61 (YN\#5 X3_5) capacitor c=508.173a
    C29 (VDD!\#1 X3_5) capacitor c=212.366a
    C55 (Y\#2 X3_5) capacitor c=604.97a
    C12 (YN\#4 VSS!) capacitor c=5.98191e-18
    C15 (VSS!\#2 YN\#3) capacitor c=44.4275a
    C18 (VSS!\#2 3) capacitor c=353.748a
    C24 (YN\#4 VDD!\#1) capacitor c=126.664a
    C23 (YN\#4 VDD!) capacitor c=50.3617a
    C25 (VDD!\#2 YN\#4) capacitor c=78.277a
    C26 (3 VDD!) capacitor c=4.46154e-15
    C35 (YN\#4 A) capacitor c=505.13a
    C32 (Y A) capacitor c=4.12265e-18
    C34 (A\#3 Y) capacitor c=2.61303e-19
    C36 (YN\#4 A\#2) capacitor c=258.025a
    C38 (A\#3 YN\#4) capacitor c=28.5625a
    C4 (VSS!\#2 A\#4) capacitor c=191.278a
    C33 (Y\#1 A\#4) capacitor c=3.9943e-18
    C37 (YN\#3 A\#4) capacitor c=307.472a
    C41 (A\#4 3) capacitor c=2.79279e-15
    C44 (YN Y) capacitor c=336.033a
    C49 (YN\#4 Y) capacitor c=18.8536a
    C50 (YN\#4 Y\#2) capacitor c=13.6817a
    C52 (3 Y) capacitor c=2.06304e-15
    C59 (YN\#4 3) capacitor c=4.03077e-15
    C30 (X2_5 VDD!) capacitor c=30.6619a
    C31 (VDD!\#2 X2_5) capacitor c=406.72a
    C43 (A\#2 X2_5) capacitor c=531.582a
    C62 (YN\#4 X2_5) capacitor c=175.629a
    MX3_M0_unmatched (Y\#2 YN\#5 VDD!\#1 VDD!\#1) pch w=8e-06 l=1e-06 as=0 \
        ad=2e-11 ps=0 pd=2.1e-05 sa=2e-06 sb=2e-06
    MX2_M0_unmatched (YN\#4 A\#2 VDD!\#2 VDD!\#2) pch w=4e-06 l=1e-06 as=0 \
        ad=1e-11 ps=0 pd=1.3e-05 sa=2e-06 sb=2e-06
    Rs1 (3 VSS!) resistor r=50
    Rd1 (A\#2 A\#3) resistor r=1336.0317
    Rd3 (A\#3 A) resistor r=85.564
    Rc9 (VSS!\#1 VSS!) resistor r=2.6965
    Rc2 (YN\#6 YN\#7) resistor r=1336.0317
    Rd4 (YN\#5 YN\#6) resistor r=1336.0317
    Rd6 (YN\#6 YN) resistor r=80.464
    Rd5 (YN YN\#3) resistor r=19.7445
    Rc10 (VSS! VSS!\#2) resistor r=5.0972
    Rc7 (VDD!\#1 VDD!) resistor r=1.4965
    Rc1 (A\#3 A\#4) resistor r=2236.0317
    Rc5 (Y Y\#1) resistor r=2.775
    Rc3 (YN\#4 YN\#3) resistor r=11.1679
    Rc4 (YN YN\#4) resistor r=10.7072
    Rc6 (Y Y\#2) resistor r=1.575
    Rc8 (VDD! VDD!\#2) resistor r=2.6222
    MX5_M0_unmatched (Y\#1 YN\#7 VSS!\#1 VSS!\#1) nch w=4e-06 l=1e-06 as=0 \
        ad=1e-11 ps=0 pd=1.3e-05 sa=2e-06 sb=2e-06
    MX4_M0_unmatched (YN\#3 A\#4 VSS!\#2 VSS!\#2) nch w=2e-06 l=1e-06 as=0 \
        ad=5e-12 ps=0 pd=9e-06 sa=2e-06 sb=2e-06
ends BUFX2_analog_extracted
// End of subcircuit definition.

// Library name: KISTA_SOI_STDLIB2
// Cell name: DFFSRX1
// View name: analog_extracted
subckt DFFSRX1_analog_extracted D Q SN QN RN CK
    C22 (RN\#2 VSS!) capacitor c=10.3983a
    C276 (RN\#2 13) capacitor c=1.92504e-15
    C33 (VSS!\#2 CK\#6) capacitor c=66.411a
    C380 (CK\#6 13) capacitor c=776.18a
    C317 (VDD!\#4 Y3\#6) capacitor c=37.5839a
    C15 (SN\#6 VSS!) capacitor c=7.29998e-19
    C32 (CK\#2 VSS!) capacitor c=5.9e-18
    C34 (VSS!\#2 CK\#5) capacitor c=209.25a
    C35 (VSS!\#4 CK) capacitor c=115.296a
    C40 (RNi\#2312 VSS!) capacitor c=10.8151a
    C41 (RNi\#2311 VSS!) capacitor c=86.3749a
    C46 (RNi\#5 VSS!) capacitor c=2.981e-18
    C54 (Y4\#8 VSS!) capacitor c=55.4545a
    C55 (Y4\#2312 VSS!) capacitor c=7.97704e-18
    C59 (Y4\#2 VSS!) capacitor c=2.33591e-18
    C70 (Y2\#2317 VSS!) capacitor c=16.3148a
    C85 (VSS!\#4 13) capacitor c=129.678f
    C182 (SN\#6 CK) capacitor c=308.055a
    C185 (CK\#2 SN\#6) capacitor c=3.45997e-20
    C191 (SN\#6 RNi\#3) capacitor c=650.544a
    C193 (RNi\#5 SN\#6) capacitor c=1.06807e-20
    C222 (SN\#6 13) capacitor c=5.82465e-15
    C284 (VDD!\#1 RNi\#2312) capacitor c=150.299a
    C290 (Y4\#2312 VDD!\#1) capacitor c=88.5389a
    C347 (RNi\#2311 CK) capacitor c=27.2181a
    C348 (RNi\#2311 CK\#5) capacitor c=761.554a
    C351 (CK\#2 RNi\#3) capacitor c=607.941a
    C352 (RNi\#5 CK) capacitor c=1.06046e-19
    C353 (RNi\#5 CK\#2) capacitor c=5.14917e-18
    C382 (CK\#5 13) capacitor c=35.4512f
    C383 (CK\#2 13) capacitor c=5.89787e-15
    C427 (RNi\#2311 Y4\#8) capacitor c=1.68054e-15
    C428 (RNi\#3 Y4\#8) capacitor c=733.745a
    C429 (Y4\#2312 RNi\#2312) capacitor c=664.727a
    C431 (Y4\#2 RNi\#3) capacitor c=30.9075a
    C432 (RNi\#5 Y4\#8) capacitor c=253.305a
    C433 (RNi\#5 Y4\#2) capacitor c=10.67a
    C442 (RNi\#2311 Y2\#2317) capacitor c=1.63206e-15
    C446 (RNi\#3 Y2\#2317) capacitor c=802.729a
    C449 (RNi\#5 Y2\#2317) capacitor c=11.1405a
    C461 (RNi\#2312 13) capacitor c=2.39827e-15
    C467 (RNi\#2311 13) capacitor c=49.4757f
    C468 (RNi\#5 13) capacitor c=5.76825e-15
    C493 (Y2\#2317 Y4\#8) capacitor c=3.91366e-15
    C516 (Y4\#8 13) capacitor c=55.4148f
    C553 (Y2\#2317 13) capacitor c=33.1577f
    C1 (D VSS!) capacitor c=19.9141a
    C114 (RNi\#2311 D) capacitor c=55.6601a
    C122 (13 D) capacitor c=1.52503e-15
    C2 (D\#2 VSS!) capacitor c=5.71744e-19
    C113 (D\#2 RNi\#2312) capacitor c=33.9973a
    C123 (D\#2 13) capacitor c=1.06759e-15
    C4 (D\#3 VSS!) capacitor c=5.31018e-18
    C115 (D\#3 RNi\#2311) capacitor c=571.177a
    C125 (D\#3 13) capacitor c=5.79577e-15
    C5 (Q VSS!) capacitor c=21.1936a
    C145 (CK Q) capacitor c=623.077a
    C148 (CK\#2 Q) capacitor c=19.1482a
    C150 (RNi\#2311 Q) capacitor c=1.1553e-15
    C156 (Y2\#2317 Q) capacitor c=484.263a
    C6 (Q\#2310 VSS!) capacitor c=7.36429e-18
    C163 (Q\#2310 13) capacitor c=177.251a
    C7 (Q\#2311 VSS!) capacitor c=1.32412e-18
    C155 (Q\#2311 Y4\#8) capacitor c=588.712a
    C161 (Q\#2311 Y2\#2317) capacitor c=543.205a
    C166 (Q\#2311 13) capacitor c=5.79806e-15
    C8 (VSS!\#2 Q\#2312) capacitor c=61.6419a
    C146 (CK\#5 Q\#2312) capacitor c=599.412a
    C151 (RNi\#2311 Q\#2312) capacitor c=609.757a
    C164 (Q\#2312 13) capacitor c=4.28371e-15
    C9 (VSS!\#4 Q\#3) capacitor c=156.13a
    C147 (Q\#3 CK) capacitor c=617.924a
    C10 (SN\#7 VSS!) capacitor c=12.4308a
    C197 (Y4\#8 SN\#7) capacitor c=10.3472a
    C200 (Y4\#2 SN\#7) capacitor c=4.35853e-19
    C215 (SN\#7 13) capacitor c=3.05409e-15
    C11 (SN\#1 VSS!) capacitor c=14.2235a
    C216 (SN\#1 13) capacitor c=1.28298e-15
    C12 (SN\#4 VSS!) capacitor c=62.8601a
    C180 (SN\#4 CK) capacitor c=576.195a
    C219 (SN\#4 13) capacitor c=1.99514e-15
    C13 (SN\#9 VSS!) capacitor c=25.7229a
    C181 (SN\#9 CK) capacitor c=1.95035e-15
    C184 (CK\#2 SN\#9) capacitor c=621.277a
    C192 (RNi\#5 SN\#9) capacitor c=611.509a
    C209 (SN\#9 Y2\#2317) capacitor c=814.835a
    C220 (SN\#9 13) capacitor c=26.3378f
    C16 (VSS!\#4 SN\#2310) capacitor c=61.2785a
    C178 (SN\#2310 CK) capacitor c=278.279a
    C183 (CK\#2 SN\#2310) capacitor c=4.29376e-18
    C217 (SN\#2310 13) capacitor c=1.3606e-15
    C17 (QN\#5 VSS!) capacitor c=3.19218e-18
    C246 (Y4\#8 QN\#5) capacitor c=589.783a
    C250 (Y2\#2317 QN\#5) capacitor c=544.041a
    C259 (QN\#5 13) capacitor c=4.20264e-15
    C18 (QN\#7 VSS!) capacitor c=12.1951a
    C19 (VSS!\#2 QN\#6) capacitor c=72.6356a
    C240 (QN\#6 CK\#5) capacitor c=68.4719a
    C20 (VSS!\#4 QN\#4) capacitor c=494.068a
    C134 (Q\#3 QN\#4) capacitor c=242.567a
    C237 (QN\#4 CK) capacitor c=585.92a
    C241 (CK\#2 QN\#4) capacitor c=9.04055e-18
    C243 (RNi\#2311 QN\#4) capacitor c=610.548a
    C260 (QN\#4 13) capacitor c=5.89427e-15
    C21 (VSS!\#4 QN\#3) capacitor c=618.325a
    C135 (Q\#3 QN\#3) capacitor c=108.661a
    C239 (QN\#3 CK\#5) capacitor c=560.201a
    C244 (QN\#3 RNi\#2311) capacitor c=10.2195a
    C251 (QN\#3 Y2\#2317) capacitor c=4.54541e-18
    C261 (QN\#3 13) capacitor c=5.5832e-15
    C26 (VDD!\#3 VSS!) capacitor c=108.756a
    C295 (VDD!\#3 Y4\#8) capacitor c=24.5998a
    C319 (VDD!\#3 13) capacitor c=135.848f
    C27 (CK\#8 VSS!) capacitor c=3.08637e-18
    C356 (Y4\#8 CK\#8) capacitor c=603.761a
    C378 (CK\#8 13) capacitor c=3.57615e-15
    C28 (CK\#1 VSS!) capacitor c=4.98943e-19
    C357 (Y4\#8 CK\#1) capacitor c=589.934a
    C358 (Y4\#2 CK\#1) capacitor c=24.8498a
    C379 (CK\#1 13) capacitor c=3.52929e-15
    C29 (VSS!\#2311 CK) capacitor c=94.7312a
    C30 (VSS!\#2312 CK) capacitor c=94.7312a
    C31 (VSS!\#2313 CK) capacitor c=95.7291a
    C14 (VSS!\#2313 SN\#8) capacitor c=179.76a
    C89 (VSS!\#6 net8\#2) capacitor c=105.554a
    C179 (SN\#8 CK) capacitor c=282.751a
    C218 (SN\#8 13) capacitor c=1.31003e-15
    C224 (net8\#2 SN\#8) capacitor c=83.616a
    C225 (SN\#6 net8\#2) capacitor c=1.83588e-18
    C387 (net8\#2 CK) capacitor c=60.7985a
    C586 (net8\#2 13) capacitor c=220.425a
    C88 (VSS!\#6 net8) capacitor c=73.7603a
    C386 (net8 CK) capacitor c=68.4719a
    C585 (net8 13) capacitor c=221.122a
    C36 (VSS!\#4 CK\#3) capacitor c=61.2785a
    C381 (CK\#3 13) capacitor c=776.506a
    C37 (net13\#5 VSS!) capacitor c=9.39651e-18
    C418 (net13\#5 13) capacitor c=1.28657e-15
    C39 (net13\#3 VSS!) capacitor c=138.401a
    C342 (net13\#3 CK) capacitor c=56.3348a
    C420 (net13\#3 13) capacitor c=1.08667e-15
    C43 (VSS!\#2312 RNi\#6) capacitor c=179.406a
    C94 (VSS!\#4 net10) capacitor c=103.983a
    C345 (RNi\#6 CK) capacitor c=566.617a
    C350 (CK\#2 RNi\#6) capacitor c=8.74272e-18
    C395 (net10 CK) capacitor c=67.4315a
    C466 (RNi\#6 13) capacitor c=1.98416e-15
    C472 (RNi\#6 net10) capacitor c=83.616a
    C591 (net10 13) capacitor c=221.122a
    C95 (VSS!\#4 net10\#2) capacitor c=73.7811a
    C396 (net10\#2 CK) capacitor c=63.0371a
    C397 (net10\#2 CK\#3) capacitor c=83.616a
    C398 (CK\#2 net10\#2) capacitor c=15.1599a
    C592 (net10\#2 13) capacitor c=221.343a
    C44 (RNi\#2318 VSS!) capacitor c=12.9931a
    C189 (RNi\#2318 SN\#1) capacitor c=246.055a
    C45 (RNi\#2317 VSS!) capacitor c=18.7788a
    C416 (RNi\#2317 net13\#5) capacitor c=244.284a
    C47 (RNi\#9 VSS!) capacitor c=6.83588e-18
    C434 (RNi\#9 Y4\#8) capacitor c=242.121a
    C453 (RNi\#9 Y2\#2317) capacitor c=598.126a
    C469 (RNi\#9 13) capacitor c=5.83607e-15
    C48 (RNi\#2313 VSS!) capacitor c=8.6169e-18
    C116 (RNi\#2313 D) capacitor c=10.0198a
    C118 (Y4\#2313 D) capacitor c=55.7344a
    C56 (Y4\#2313 VSS!) capacitor c=5.7836e-18
    C117 (RNi\#2313 D\#3) capacitor c=12.6982a
    C119 (Y4\#2313 D\#2) capacitor c=434.763a
    C120 (D\#3 Y4\#2313) capacitor c=276.353a
    C124 (D\#4 13) capacitor c=3.50057e-15
    C435 (RNi\#2313 Y4\#8) capacitor c=36.6002a
    C470 (RNi\#2313 13) capacitor c=6.2037e-15
    C478 (RNi\#2312 X53_5) capacitor c=487.384a
    C320 (VDD!\#1 X53_5) capacitor c=462.948a
    C521 (Y4\#2312 X53_5) capacitor c=406.381a
    C112 (VDD!\#22 D\#2) capacitor c=155.241a
    C291 (Y4\#2313 VDD!\#22) capacitor c=107.65a
    C321 (VDD!\#22 X52_5) capacitor c=328.32a
    C522 (Y4\#2313 X52_5) capacitor c=315.034a
    C128 (D\#2 X52_5) capacitor c=453.96a
    C121 (Y3\#2313 D\#2) capacitor c=36.2792a
    C78 (Y3\#2313 VSS!) capacitor c=4.49724e-18
    C568 (Y3\#2313 13) capacitor c=184.717a
    C3 (VSS!\#1 D\#4) capacitor c=66.411a
    C42 (VSS!\#1 RNi\#2314) capacitor c=184.219a
    C464 (RNi\#2314 13) capacitor c=2.08589e-15
    C49 (VSS!\#2 RNi\#2310) capacitor c=61.2785a
    C346 (CK\#5 RNi\#2310) capacitor c=595.066a
    C465 (RNi\#2310 13) capacitor c=1.97064e-15
    C149 (Q\#2310 RNi\#8) capacitor c=33.8606a
    C425 (Y4\#8 RNi\#8) capacitor c=349.436a
    C462 (RNi\#8 13) capacitor c=2.27235e-15
    C50 (VSS!\#6 RNi) capacitor c=169.124a
    C343 (RNi CK) capacitor c=1.09018e-15
    C51 (VSS!\#6 RNi\#2) capacitor c=73.7811a
    C188 (RNi\#2 SN\#4) capacitor c=80.8146a
    C349 (RNi\#2 CK) capacitor c=68.4915a
    C52 (Y4\#7 VSS!) capacitor c=4.07716e-18
    C355 (CK\#8 Y4\#7) capacitor c=34.5781a
    C513 (Y4\#7 13) capacitor c=1.12362e-15
    C53 (Y4\#3 VSS!) capacitor c=1.32962e-18
    C195 (SN\#7 Y4\#3) capacitor c=34.5781a
    C514 (Y4\#3 13) capacitor c=1.06092e-15
    C57 (Y4\#2315 VSS!) capacitor c=8.32077e-18
    C503 (Y4\#2315 Y3\#2313) capacitor c=148.356a
    C58 (Y4\#2311 VSS!\#1) capacitor c=163.905a
    C60 (VSS!\#2 Y4\#5) capacitor c=69.8273a
    C515 (Y4\#5 13) capacitor c=3.63097e-15
    C61 (VSS!\#6 Y4) capacitor c=61.3093a
    C198 (SN\#6 Y4) capacitor c=2.52051e-18
    C354 (Y4 CK) capacitor c=575.996a
    C512 (13 Y4) capacitor c=3.17114e-15
    C517 (net8 Y4) capacitor c=83.616a
    C62 (Y1\#9 VSS!) capacitor c=7.40801e-18
    C360 (Y1\#9 CK\#1) capacitor c=33.8606a
    C533 (Y1\#9 13) capacitor c=177.251a
    C63 (Y1\#8 VSS!) capacitor c=34.1498a
    C203 (Y1\#8 SN\#7) capacitor c=639.704a
    C439 (RNi\#2318 Y1\#8) capacitor c=24.6736a
    C64 (VSS!\#4 Y1\#2311) capacitor c=59.6561a
    C205 (SN\#6 Y1\#2311) capacitor c=2.58005e-18
    C361 (Y1\#2311 CK) capacitor c=567.131a
    C364 (CK\#2 Y1\#2311) capacitor c=8.75064e-18
    C437 (RNi\#3 Y1\#2311) capacitor c=604.668a
    C440 (RNi\#5 Y1\#2311) capacitor c=5.12337e-18
    C534 (Y1\#2311 13) capacitor c=4.14436e-15
    C65 (VSS!\#6 Y1) capacitor c=91.675a
    C204 (SN\#6 Y1) capacitor c=4.59625e-18
    C359 (Y1 CK) capacitor c=1.06846e-15
    C363 (CK\#2 Y1) capacitor c=17.4697a
    C436 (RNi\#3 Y1) capacitor c=519.815a
    C66 (VSS!\#6 Y1\#2) capacitor c=64.4553a
    C362 (Y1\#2 CK) capacitor c=63.7563a
    C67 (Y2\#20 VSS!) capacitor c=3.8424e-18
    C365 (Y2\#20 CK\#8) capacitor c=34.5781a
    C547 (Y2\#20 13) capacitor c=1.68071e-15
    C68 (Y2\#2315 VSS!) capacitor c=7.26522e-18
    C548 (Y2\#2315 13) capacitor c=1.91796e-15
    C69 (Y2\#4 VSS!) capacitor c=8.35411e-18
    C491 (Y4\#3 Y2\#4) capacitor c=34.5781a
    C492 (Y4\#8 Y2\#4) capacitor c=589.524a
    C496 (Y4\#2 Y2\#4) capacitor c=24.8325a
    C549 (Y2\#4 13) capacitor c=4.44052e-15
    C71 (Y2\#6 VSS!) capacitor c=1.60958e-18
    C494 (Y2\#6 Y4\#8) capacitor c=94.915a
    C497 (Y4\#2 Y2\#6) capacitor c=3.99811e-18
    C554 (Y2\#6 13) capacitor c=2.99881e-15
    C73 (VSS!\#2311 Y2\#2313) capacitor c=179.398a
    C97 (VSS!\#4 net3\#2) capacitor c=104.004a
    C208 (SN\#9 Y2\#2313) capacitor c=288.854a
    C366 (Y2\#2313 CK) capacitor c=567.425a
    C372 (CK\#2 Y2\#2313) capacitor c=8.75519e-18
    C400 (net3\#2 CK) capacitor c=67.4508a
    C401 (CK\#2 net3\#2) capacitor c=1.96429e-18
    C551 (Y2\#2313 13) capacitor c=2.54149e-15
    C559 (net3\#2 Y2\#2313) capacitor c=83.616a
    C160 (Y2\#2314 Q) capacitor c=75.9005a
    C162 (Q\#2311 Y2\#2314) capacitor c=42.5849a
    C213 (Y2\#2314 SN\#9) capacitor c=63.8795a
    C252 (Y2\#2314 QN\#5) capacitor c=42.6504a
    C253 (Y2\#2314 QN\#3) capacitor c=3.5634e-19
    C451 (Y2\#2314 RNi\#3) capacitor c=89.019a
    C452 (Y2\#2314 RNi\#5) capacitor c=8.73366e-19
    C498 (Y2\#2314 Y4\#8) capacitor c=74.0073a
    C499 (Y2\#2314 Y4\#2) capacitor c=3.11741e-18
    C594 (net3\#2 13) capacitor c=221.343a
    C96 (VSS!\#4 net3) capacitor c=73.7603a
    C226 (SN\#2310 net3) capacitor c=83.616a
    C227 (SN\#9 net3) capacitor c=1.83588e-18
    C399 (net3 CK) capacitor c=59.8553a
    C593 (net3 13) capacitor c=220.204a
    C255 (QN\#2311 Y2\#2314) capacitor c=75.5441a
    C248 (QN\#2311 Y4\#8) capacitor c=1.23924e-15
    C254 (QN\#2311 Y2\#2317) capacitor c=483.91a
    C74 (VSS!\#4 Y2\#5) capacitor c=73.7603a
    C371 (Y2\#5 CK) capacitor c=67.4315a
    C375 (CK\#2 Y2\#5) capacitor c=1.04045e-18
    C529 (Y2\#5 Y1\#2311) capacitor c=80.8146a
    C75 (VSS!\#6 Y2\#3) capacitor c=489.667a
    C211 (SN\#6 Y2\#3) capacitor c=2.58204e-18
    C367 (Y2\#3 CK) capacitor c=562.488a
    C373 (CK\#2 Y2\#3) capacitor c=8.679e-18
    C445 (RNi\#3 Y2\#3) capacitor c=610.552a
    C531 (Y1\#2 Y2\#3) capacitor c=139.082a
    C552 (Y2\#3 13) capacitor c=5.78719e-15
    C76 (VSS!\#6 Y2\#2) capacitor c=614.384a
    C212 (SN\#6 Y2\#2) capacitor c=4.59649e-18
    C187 (RNi\#3 SN) capacitor c=3.79181e-15
    C194 (Y4 SN) capacitor c=570.21a
    C201 (Y1 SN) capacitor c=1.0398e-15
    C202 (Y1\#2311 SN) capacitor c=583.681a
    C207 (Y2\#3 SN) capacitor c=584.131a
    C210 (Y2\#2 SN) capacitor c=1.03986e-15
    C369 (Y2\#2 CK) capacitor c=1.06264e-15
    C374 (CK\#2 Y2\#2) capacitor c=16.3962a
    C447 (RNi\#3 Y2\#2) capacitor c=517.839a
    C450 (RNi\#5 Y2\#2) capacitor c=4.38766e-18
    C526 (Y2\#2 Y1) capacitor c=105.372a
    C438 (RNi\#3 Y1\#3) capacitor c=554.355a
    C441 (RNi\#5 Y1\#3) capacitor c=4.51285e-18
    C344 (CK\#1 RNi\#4) capacitor c=34.5781a
    C426 (Y4\#8 RNi\#4) capacitor c=335.406a
    C430 (Y4\#2 RNi\#4) capacitor c=14.1283a
    C443 (Y2\#6 RNi\#4) capacitor c=15.3669a
    C463 (RNi\#4 13) capacitor c=2.30249e-15
    C484 (Y1\#3 Y4\#8) capacitor c=1.12322e-15
    C488 (Y4\#2 Y1\#3) capacitor c=66.5048a
    C535 (Y1\#3 13) capacitor c=19.1731f
    C555 (Y2\#2 13) capacitor c=9.88464e-15
    C174 (SN\#2312 QN\#5) capacitor c=34.5781a
    C196 (Y4\#8 SN\#2312) capacitor c=566.375a
    C199 (Y4\#2 SN\#2312) capacitor c=23.8574a
    C206 (Y2\#2315 SN\#2312) capacitor c=36.2794a
    C214 (SN\#2312 13) capacitor c=2.85775e-15
    C77 (Y3 VSS!) capacitor c=2.3736e-18
    C256 (QN\#7 Y3) capacitor c=28.8734a
    C500 (Y4\#8 Y3) capacitor c=98.7308a
    C544 (Y2\#20 Y3) capacitor c=15.515a
    C567 (13 Y3) capacitor c=2.98824e-15
    C79 (Y3\#6 VSS!) capacitor c=17.9549a
    C457 (RNi\#2311 Y3\#6) capacitor c=544.806a
    C502 (Y4\#8 Y3\#6) capacitor c=1.37785e-15
    C572 (Y3\#6 13) capacitor c=19.6975f
    C80 (VSS!\#1 Y3\#2315) capacitor c=65.6319a
    C455 (RNi\#2311 Y3\#2315) capacitor c=603.402a
    C459 (RNi\#2313 Y3\#2315) capacitor c=13.4146a
    C460 (RNi\#2313 Y3\#5) capacitor c=24.2368a
    C84 (VSS!\#2 Y3\#5) capacitor c=181.602a
    C458 (Y3\#5 RNi\#2311) capacitor c=545.39a
    C504 (Y4\#2311 Y3\#2315) capacitor c=95.5625a
    C507 (Y3\#5 Y4\#5) capacitor c=95.5608a
    C508 (Y3\#5 Y4\#2311) capacitor c=139.797a
    C570 (Y3\#2315 13) capacitor c=4.5824e-15
    C81 (Y3\#2311 VSS!) capacitor c=1.42055e-18
    C510 (Y3\#2311 Y4\#8) capacitor c=134.092a
    C546 (Y3\#2311 Y2\#20) capacitor c=637.65a
    C83 (Y3\#2314 VSS!) capacitor c=6.14541e-18
    C316 (VDD!\#3 Y3\#2314) capacitor c=18.2136a
    C511 (Y3\#2314 Y4\#2315) capacitor c=703.543a
    C573 (Y3\#2314 13) capacitor c=5.87633e-15
    C578 (Y3\#2314 X51_5) capacitor c=96.1789a
    C523 (Y4\#2315 X51_5) capacitor c=348.52a
    C577 (Y3\#2313 X51_5) capacitor c=356.549a
    C322 (VDD!\#23 X51_5) capacitor c=333.968a
    C292 (Y4\#2315 VDD!\#23) capacitor c=115.933a
    C311 (VDD!\#23 Y3\#2313) capacitor c=144.16a
    C86 (net14 VSS!) capacitor c=72.6356a
    C223 (SN\#4 net14) capacitor c=83.616a
    C384 (net14 CK) capacitor c=68.4719a
    C471 (RNi\#2 net14) capacitor c=41.361a
    C190 (SN\#2 RNi\#3) capacitor c=8.00856e-19
    C444 (RNi\#3 Y2) capacitor c=552.238a
    C221 (SN\#2 13) capacitor c=5.93481e-18
    C495 (Y4\#2 Y2) capacitor c=94.8866a
    C527 (Y1\#3 Y2) capacitor c=140.807a
    C583 (net14 13) capacitor c=221.122a
    C87 (net14\#2 VSS!) capacitor c=105.129a
    C385 (net14\#2 CK) capacitor c=68.4915a
    C584 (net14\#2 13) capacitor c=221.343a
    C186 (net13 SN) capacitor c=34.8887a
    C228 (net4\#2 SN\#2310) capacitor c=83.616a
    C611 (net4\#2 net3) capacitor c=39.8112a
    C392 (CK\#3 net9) capacitor c=83.616a
    C610 (net10\#2 net9) capacitor c=39.8112a
    C154 (Y4\#2 Q\#7) capacitor c=10.3532a
    C490 (Y1\#2310 Y4\#2) capacitor c=24.7525a
    C159 (Q\#9 Y2\#6) capacitor c=28.8734a
    C309 (VDD!\#2313 Y2\#6) capacitor c=29.9985a
    C130 (QN Q) capacitor c=80.0008a
    C262 (QN\#4 net4) capacitor c=83.616a
    C264 (QN\#6 net5\#2) capacitor c=39.8112a
    C263 (net5\#2 QN\#3) capacitor c=1.83462e-18
    C422 (net14\#2 net13\#7) capacitor c=83.616a
    C302 (VDD!\#2316 Y1\#3) capacitor c=41.1742a
    C575 (Y3\#5 net12) capacitor c=41.34a
    C475 (RNi\#2314 net2) capacitor c=83.616a
    C293 (VDD!\#24 Y4\#7) capacitor c=158.19a
    C312 (Y3\#7 VDD!\#24) capacitor c=111.119a
    C505 (Y3\#7 Y4\#7) capacitor c=438.63a
    C165 (Q\#4 13) capacitor c=20.0429f
    C137 (QN\#2311 Q\#4) capacitor c=117.734a
    C142 (VDD!\#9 Q\#4) capacitor c=10.9119a
    C236 (VDD!\#9 QN\#2311) capacitor c=30.4203a
    C143 (VDD!\#9 Q\#2311) capacitor c=28.7505a
    C136 (Q\#2311 QN\#2310) capacitor c=609.217a
    C170 (Q\#2311 X45_5) capacitor c=112.751a
    C267 (QN\#2310 X45_5) capacitor c=316.116a
    C132 (QN\#2310 Q\#2310) capacitor c=147.723a
    C169 (Q\#2310 X45_5) capacitor c=356.549a
    C328 (VDD!\#29 X45_5) capacitor c=333.968a
    C138 (VDD!\#29 Q\#2310) capacitor c=144.16a
    C234 (QN\#2310 VDD!\#29) capacitor c=111.825a
    C247 (QN\#2310 Y4\#8) capacitor c=289.068a
    C152 (Q\#4 Y4\#8) capacitor c=1.2172e-15
    C506 (Y3\#7 Y4\#8) capacitor c=413.366a
    C144 (VDD!\#2310 Q\#4) capacitor c=41.1742a
    C153 (Q\#7 Y4\#8) capacitor c=327.485a
    C129 (Q\#7 SN\#2312) capacitor c=644.683a
    C140 (Q\#7 VDD!\#31) capacitor c=107.267a
    C175 (VDD!\#31 SN\#2312) capacitor c=158.19a
    C229 (SN\#2312 X43_5) capacitor c=453.221a
    C172 (Q\#7 X43_5) capacitor c=316.082a
    C330 (VDD!\#31 X43_5) capacitor c=328.08a
    C139 (Q\#5 VDD!\#30) capacitor c=110.665a
    C133 (Q\#5 QN\#5) capacitor c=672.681a
    C235 (VDD!\#30 QN\#5) capacitor c=158.19a
    C268 (QN\#5 X44_5) capacitor c=453.221a
    C329 (VDD!\#30 X44_5) capacitor c=333.968a
    C171 (Q\#5 X44_5) capacitor c=316.042a
    C489 (Y1\#2310 Y4\#8) capacitor c=587.624a
    C536 (Y1\#2310 13) capacitor c=5.9638e-15
    C141 (Q\#9 VDD!\#32) capacitor c=86.3337a
    C157 (Q\#4 Y2\#2317) capacitor c=483.91a
    C158 (Q\#9 Y2\#2315) capacitor c=613.811a
    C304 (VDD!\#32 Y2\#2315) capacitor c=160.516a
    C331 (VDD!\#32 X42_5) capacitor c=333.024a
    C562 (Y2\#2315 X42_5) capacitor c=461.773a
    C173 (Q\#9 X42_5) capacitor c=156.865a
    C249 (Y2\#2317 QN) capacitor c=479.717a
    C258 (13 QN) capacitor c=14.3931f
    C131 (Q\#2312 QN) capacitor c=185.105a
    C167 (Q\#3 net4) capacitor c=41.34a
    C595 (net4 13) capacitor c=221.122a
    C98 (VSS!\#4 net4) capacitor c=72.6356a
    C92 (VSS!\#4 net9) capacitor c=73.7603a
    C589 (net9 13) capacitor c=221.122a
    C93 (VSS!\#4 net9\#2) capacitor c=72.6564a
    C590 (net9\#2 13) capacitor c=221.343a
    C99 (VSS!\#4 net4\#2) capacitor c=73.7811a
    C596 (net4\#2 13) capacitor c=221.343a
    C402 (net4 CK) capacitor c=67.4315a
    C391 (net9 CK) capacitor c=67.4315a
    C393 (net9\#2 CK) capacitor c=67.4508a
    C403 (net4\#2 CK) capacitor c=67.4508a
    C82 (VSS!\#2310 Y3\#3) capacitor c=179.995a
    C571 (Y3\#3 13) capacitor c=4.43765e-15
    C168 (net5\#2 Q\#2312) capacitor c=83.616a
    C598 (net5\#2 13) capacitor c=221.343a
    C101 (VSS!\#2 net5\#2) capacitor c=72.6564a
    C102 (VSS!\#2 net6) capacitor c=103.983a
    C574 (Y3\#3 net6) capacitor c=83.616a
    C599 (net6 13) capacitor c=221.122a
    C100 (VSS!\#2 net5) capacitor c=73.7603a
    C597 (net5 13) capacitor c=221.122a
    C103 (VSS!\#2 net6\#2) capacitor c=73.7811a
    C600 (net6\#2 13) capacitor c=221.343a
    C612 (net6\#2 net5) capacitor c=39.8112a
    C407 (CK\#5 net6) capacitor c=68.4719a
    C238 (CK\#5 QN) capacitor c=617.785a
    C376 (CK\#5 Y3\#3) capacitor c=597.152a
    C405 (CK\#5 net5) capacitor c=68.4719a
    C406 (net5\#2 CK\#5) capacitor c=68.4915a