* +++++++++++++++++++++++++++++++++++++++++++++++++++++++++ *
* CDL Netlist:                                              *
*                                                           *
* Cell Name  : FILL1                                        *
* Netlisted  : Thu Nov 18 08:13:49 2021                     *
* PVS Version: 16.15-s010 Fri Jun 28 22:24:07 PDT 2019      *
* +++++++++++++++++++++++++++++++++++++++++++++++++++++++++ *
*.LDD
*.DEVTMPLT 0 MN(nmos3) _nmos1v _soi_nd(D) poly_conn(G) _soi_nsb(S) _soi_nsb(B)
*.DEVTMPLT 1 MP(pmos3) _pmos1v _soi_pd(D) poly_conn(G) _soi_psb(S) _soi_psb(B)

* +++++++++++++++++++++++++++++++++++++++++++++++++++++++++ *
* Sub cell: FILL1                                           *
* +++++++++++++++++++++++++++++++++++++++++++++++++++++++++ *
.subckt FILL1 VDD! VSS!
** N=3 EP=2 FDC=0
.ends FILL1
